REMARK  Name = PRD_002214
REMARK  24 active torsions:
REMARK  status: ('A' for Active; 'I' for Inactive)
REMARK    1  A    between atoms: C_1  and  C_2
REMARK    2  A    between atoms: C_2  and  C_3
REMARK    3  A    between atoms: C_2  and  C_4
REMARK    4  A    between atoms: C_4  and  C_5
REMARK    5  A    between atoms: C_5  and  N_7
REMARK    6  A    between atoms: C_5  and  C_30
REMARK    7  A    between atoms: C_8  and  C_10
REMARK    8  A    between atoms: C_10  and  N_12
REMARK    9  A    between atoms: C_10  and  C_27
REMARK   10  A    between atoms: C_13  and  C_15
REMARK   11  A    between atoms: C_15  and  C_17
REMARK   12  A    between atoms: C_15  and  N_18
REMARK   13  A    between atoms: C_19  and  C_21
REMARK   14  A    between atoms: C_23  and  C_24
REMARK   15  A    between atoms: C_27  and  C_28
REMARK   16  A    between atoms: C_27  and  C_29
REMARK   17  A    between atoms: N_32  and  C_33
REMARK   18  A    between atoms: C_33  and  C_35
REMARK   19  A    between atoms: C_33  and  C_43
REMARK   20  A    between atoms: C_35  and  C_36
REMARK   21  A    between atoms: C_44  and  C_45
REMARK   22  A    between atoms: C_45  and  O_47
REMARK   23  A    between atoms: O_47  and  C_48
REMARK   24  A    between atoms: C_48  and  C_49
REMARK                            x       y       z     vdW  Elec       q    Type
REMARK                         _______ _______ _______ _____ _____    ______ ____
ROOT
ATOM      1  C   UNL     1      15.538  -3.212  -6.331  0.00  0.00    +0.100 C 
ATOM      2  H   UNL     1      14.734  -2.568  -5.946  0.00  0.00    +0.059 HD
ENDROOT
BRANCH   1   3
ATOM      3  N   UNL     1      14.946  -4.537  -6.469  0.00  0.00    -0.302 N 
ATOM      4  H   UNL     1      15.274  -5.150  -7.209  0.00  0.00    +0.150 HD
ATOM      5  C   UNL     1      13.936  -4.936  -5.622  0.00  0.00    +0.234 C 
ATOM      6  O   UNL     1      13.408  -4.153  -4.831  0.00  0.00    -0.274 OA
BRANCH   5   7
ATOM      7  C   UNL     1      13.515  -6.423  -5.667  0.00  0.00    +0.102 C 
ATOM      8  H   UNL     1      12.426  -6.433  -5.782  0.00  0.00    +0.060 HD
BRANCH   7   9
ATOM      9  N   UNL     1      14.076  -7.158  -6.808  0.00  0.00    -0.302 N 
ATOM     10  H   UNL     1      14.956  -7.641  -6.663  0.00  0.00    +0.150 HD
ATOM     11  C   UNL     1      13.554  -7.434  -8.034  0.00  0.00    +0.234 C 
ATOM     12  O   UNL     1      14.214  -8.179  -8.765  0.00  0.00    -0.274 OA
BRANCH  11  13
ATOM     13  C   UNL     1      12.285  -6.734  -8.553  0.00  0.00    +0.097 C 
ATOM     14  H   UNL     1      11.733  -6.222  -7.767  0.00  0.00    +0.059 HD
BRANCH  13  15
ATOM     15  C   UNL     1      11.368  -7.768  -9.213  0.00  0.00    -0.038 C 
ATOM     16  H   UNL     1      11.866  -8.271 -10.051  0.00  0.00    +0.025 HD
ATOM     17  H   UNL     1      11.069  -8.542  -8.497  0.00  0.00    +0.025 HD
ATOM     18  H   UNL     1      10.463  -7.298  -9.610  0.00  0.00    +0.025 HD
ENDBRANCH  13  15
BRANCH  13  19
ATOM     19  N   UNL     1      12.769  -5.770  -9.548  0.00  0.00    -0.299 N 
ATOM     20  H   UNL     1      13.204  -6.274 -10.315  0.00  0.00    +0.150 HD
ATOM     21  C   UNL     1      11.954  -4.803 -10.105  0.00  0.00    +0.266 C 
ATOM     22  O   UNL     1      11.607  -4.930 -11.277  0.00  0.00    -0.268 OA
BRANCH  21  23
ATOM     23  C   UNL     1      11.705  -3.598  -9.304  0.00  0.00    +0.168 A 
ATOM     24  N   UNL     1      11.347  -2.440  -9.892  0.00  0.00    -0.073 NA
ATOM     25  O   UNL     1      11.395  -1.470  -8.908  0.00  0.00    -0.359 OA
ATOM     26  C   UNL     1      11.736  -2.043  -7.728  0.00  0.00    +0.135 A 
ATOM     27  C   UNL     1      11.869  -3.393  -7.914  0.00  0.00    +0.012 A 
ATOM     28  H   UNL     1      12.121  -4.110  -7.159  0.00  0.00    +0.068 HD
BRANCH  26  29
ATOM     29  C   UNL     1      11.925  -1.149  -6.575  0.00  0.00    -0.004 C 
ATOM     30  H   UNL     1      12.840  -0.560  -6.703  0.00  0.00    +0.031 HD
ATOM     31  H   UNL     1      11.083  -0.461  -6.465  0.00  0.00    +0.031 HD
ATOM     32  H   UNL     1      12.026  -1.720  -5.646  0.00  0.00    +0.031 HD
ENDBRANCH  26  29
ENDBRANCH  21  23
ENDBRANCH  13  19
ENDBRANCH  11  13
ENDBRANCH   7   9
BRANCH   7  33
ATOM     33  C   UNL     1      13.872  -7.145  -4.334  0.00  0.00    -0.020 C 
ATOM     34  H   UNL     1      13.607  -8.204  -4.454  0.00  0.00    +0.032 HD
BRANCH  33  35
ATOM     35  C   UNL     1      15.363  -7.084  -3.992  0.00  0.00    -0.061 C 
ATOM     36  H   UNL     1      15.691  -6.057  -3.810  0.00  0.00    +0.023 HD
ATOM     37  H   UNL     1      15.574  -7.660  -3.085  0.00  0.00    +0.023 HD
ATOM     38  H   UNL     1      15.975  -7.506  -4.793  0.00  0.00    +0.023 HD
ENDBRANCH  33  35
BRANCH  33  39
ATOM     39  C   UNL     1      13.061  -6.623  -3.139  0.00  0.00    -0.061 C 
ATOM     40  H   UNL     1      13.221  -7.262  -2.263  0.00  0.00    +0.023 HD
ATOM     41  H   UNL     1      13.359  -5.610  -2.849  0.00  0.00    +0.023 HD
ATOM     42  H   UNL     1      11.989  -6.619  -3.358  0.00  0.00    +0.023 HD
ENDBRANCH  33  39
ENDBRANCH   7  33
ENDBRANCH   5   7
ENDBRANCH   1   3
BRANCH   1  43
ATOM     43  C   UNL     1      16.000  -2.521  -7.644  0.00  0.00    +0.234 C 
ATOM     44  N   UNL     1      16.194  -1.163  -7.448  0.00  0.00    -0.307 N 
ATOM     45  H   UNL     1      15.855  -0.807  -6.568  0.00  0.00    +0.149 HD
ATOM     46  O   UNL     1      16.219  -3.123  -8.687  0.00  0.00    -0.274 OA
BRANCH  44  47
ATOM     47  C   UNL     1      16.831  -0.199  -8.348  0.00  0.00    +0.043 C 
ATOM     48  H   UNL     1      16.325  -0.284  -9.316  0.00  0.00    +0.054 HD
BRANCH  47  49
ATOM     49  C   UNL     1      18.276  -0.575  -8.505  0.00  0.00    -0.057 C 
ATOM     50  H   UNL     1      18.653  -1.261  -7.747  0.00  0.00    +0.059 HD
ATOM     51  C   UNL     1      19.183  -0.231  -9.435  0.00  0.00    +0.020 C 
ATOM     52  H   UNL     1      20.173  -0.674  -9.325  0.00  0.00    +0.069 HD
BRANCH  51  53
ATOM     53  C   UNL     1      19.136   0.605 -10.653  0.00  0.00    +0.332 C 
ATOM     54  O   UNL     1      20.074   0.587 -11.440  0.00  0.00    -0.246 OA
BRANCH  53  55
ATOM     55  O   UNL     1      17.992   1.308 -10.802  0.00  0.00    -0.457 OA
BRANCH  55  56
ATOM     56  C   UNL     1      17.786   1.810 -12.134  0.00  0.00    +0.118 C 
ATOM     57  H   UNL     1      18.154   1.096 -12.884  0.00  0.00    +0.075 HD
ATOM     58  H   UNL     1      16.701   1.842 -12.290  0.00  0.00    +0.075 HD
BRANCH  56  59
ATOM     59  C   UNL     1      18.353   3.188 -12.404  0.00  0.00    -0.010 A 
ATOM     60  C   UNL     1      17.587   4.340 -12.174  0.00  0.00    -0.055 A 
ATOM     61  H   UNL     1      16.593   4.260 -11.740  0.00  0.00    +0.062 HD
ATOM     62  C   UNL     1      18.069   5.601 -12.540  0.00  0.00    -0.061 A 
ATOM     63  H   UNL     1      17.455   6.485 -12.385  0.00  0.00    +0.062 HD
ATOM     64  C   UNL     1      19.327   5.730 -13.126  0.00  0.00    -0.062 A 
ATOM     65  H   UNL     1      19.694   6.708 -13.426  0.00  0.00    +0.062 HD
ATOM     66  C   UNL     1      20.110   4.598 -13.335  0.00  0.00    -0.061 A 
ATOM     67  H   UNL     1      21.092   4.692 -13.794  0.00  0.00    +0.062 HD
ATOM     68  C   UNL     1      19.627   3.336 -12.975  0.00  0.00    -0.055 A 
ATOM     69  H   UNL     1      20.247   2.463 -13.170  0.00  0.00    +0.062 HD
ENDBRANCH  56  59
ENDBRANCH  55  56
ENDBRANCH  53  55
ENDBRANCH  51  53
ENDBRANCH  47  49
BRANCH  47  70
ATOM     70  C   UNL     1      16.663   1.239  -7.780  0.00  0.00    -0.020 C 
ATOM     71  H   UNL     1      17.292   1.935  -8.348  0.00  0.00    +0.029 HD
ATOM     72  H   UNL     1      15.625   1.539  -7.976  0.00  0.00    +0.029 HD
BRANCH  70  73
ATOM     73  C   UNL     1      16.909   1.449  -6.267  0.00  0.00    +0.039 C 
ATOM     74  H   UNL     1      16.220   0.842  -5.671  0.00  0.00    +0.040 HD
ATOM     75  C   UNL     1      18.312   1.158  -5.780  0.00  0.00    +0.216 C 
ATOM     76  O   UNL     1      18.827   0.058  -5.678  0.00  0.00    -0.276 OA
ATOM     77  N   UNL     1      18.911   2.332  -5.412  0.00  0.00    -0.315 N 
ATOM     78  H   UNL     1      19.853   2.333  -5.041  0.00  0.00    +0.149 HD
ATOM     79  C   UNL     1      18.053   3.470  -5.479  0.00  0.00    +0.012 C 
ATOM     80  H   UNL     1      18.441   4.158  -6.236  0.00  0.00    +0.046 HD
ATOM     81  H   UNL     1      18.044   3.964  -4.507  0.00  0.00    +0.046 HD
ATOM     82  C   UNL     1      16.688   2.913  -5.844  0.00  0.00    -0.026 C 
ATOM     83  H   UNL     1      16.189   3.518  -6.608  0.00  0.00    +0.029 HD
ATOM     84  H   UNL     1      16.038   2.937  -4.958  0.00  0.00    +0.029 HD
ENDBRANCH  70  73
ENDBRANCH  47  70
ENDBRANCH  44  47
ENDBRANCH   1  43
BRANCH   1  85
ATOM     85  C   UNL     1      16.655  -3.198  -5.261  0.00  0.00    -0.024 C 
ATOM     86  H   UNL     1      16.309  -3.729  -4.364  0.00  0.00    +0.029 HD
ATOM     87  H   UNL     1      16.801  -2.155  -4.946  0.00  0.00    +0.029 HD
BRANCH  85  88
ATOM     88  C   UNL     1      18.034  -3.752  -5.682  0.00  0.00    -0.045 C 
ATOM     89  H   UNL     1      18.379  -3.224  -6.576  0.00  0.00    +0.030 HD
BRANCH  88  90
ATOM     90  C   UNL     1      18.032  -5.245  -5.998  0.00  0.00    -0.063 C 
ATOM     91  H   UNL     1      17.394  -5.479  -6.854  0.00  0.00    +0.023 HD
ATOM     92  H   UNL     1      19.041  -5.585  -6.255  0.00  0.00    +0.023 HD
ATOM     93  H   UNL     1      17.698  -5.831  -5.138  0.00  0.00    +0.023 HD
ENDBRANCH  88  90
BRANCH  88  94
ATOM     94  C   UNL     1      19.052  -3.474  -4.570  0.00  0.00    -0.063 C 
ATOM     95  H   UNL     1      19.166  -2.398  -4.408  0.00  0.00    +0.023 HD
ATOM     96  H   UNL     1      18.738  -3.926  -3.622  0.00  0.00    +0.023 HD
ATOM     97  H   UNL     1      20.037  -3.877  -4.829  0.00  0.00    +0.023 HD
ENDBRANCH  88  94
ENDBRANCH  85  88
ENDBRANCH   1  85
TORSDOF 24
